source d:\FHEUI\ngspice\0116.sp

* ex1
.global gnd!
V1 0 1 SIN(0 10m 100)
R1 1 2 1000
R2 2 3 20
C2 2 3 10p
R3 3 4 20
R4 4 5 1.7
R5 5 6 1.7
R6 6 7 20
R7 7 8 20
C7 7 8 10p
R8 8 0 1000  
R9 0 9 1000
R10 9 10 1
C10 9 10 10p
R11 10 11 20
R12 11 gnd! 1.7
.TRAN 0.1m 50m
.control
run
*plotting input and output voltages
plot V(1) V(5) V(11)
.end